37

C             -0.556912000000         2.681200000000         2.160567000000
N              0.354480000000         1.667654000000         1.620527000000
C              1.119394000000         0.852993000000         2.529913000000
O              1.123819000000         1.111016000000         3.764668000000
C              1.904877000000        -0.316439000000         2.027135000000
N              1.018019000000        -1.208358000000         1.290504000000
C              0.429598000000        -0.916365000000         0.165575000000
C              0.660722000000         0.395540000000        -0.508078000000
C              0.616755000000         1.624473000000         0.200490000000
C              0.826323000000         2.827009000000        -0.499872000000
C              1.078910000000         2.819841000000        -1.871826000000
C              1.129200000000         1.612461000000        -2.567210000000
C              0.924328000000         0.408578000000        -1.890433000000
Cl             1.453107000000         1.605892000000        -4.291210000000
C             -0.453548000000        -1.939637000000        -0.454628000000
C             -1.498553000000        -1.583983000000        -1.218815000000
C             -2.371433000000        -2.642203000000        -1.826921000000
C             -2.726684000000        -3.707797000000        -0.777996000000
C             -1.516911000000        -4.159806000000         0.082124000000
C             -0.204717000000        -3.416476000000        -0.236525000000
H              0.021796000000         3.572036000000         2.483460000000
H             -1.116770000000         2.272621000000         3.028671000000
H             -1.302308000000         2.985226000000         1.394518000000
H              2.345168000000        -0.875608000000         2.879942000000
H              2.735699000000         0.029265000000         1.374793000000
H              0.806707000000         3.775152000000         0.021946000000
H              1.240449000000         3.755117000000        -2.392612000000
H              0.976134000000        -0.521366000000        -2.443947000000
H             -1.755713000000        -0.542213000000        -1.367347000000
H             -3.298370000000        -2.182920000000        -2.232097000000
H             -1.824466000000        -3.120801000000        -2.668098000000
H             -3.511038000000        -3.293121000000        -0.106915000000
H             -3.169715000000        -4.587407000000        -1.293444000000
H             -1.760724000000        -3.998215000000         1.155302000000
H             -1.351099000000        -5.250800000000        -0.052296000000
H              0.238683000000        -3.838694000000        -1.164459000000
H              0.520226000000        -3.594828000000         0.585567000000
