74

C      -2.135  1.210   -0.112  C1     -0.043  
C      -0.700  1.225   -0.102  C2     0.135   
C      0.015   -0.004  -0.129  C3     -0.152  
C      -0.705  -1.199  -0.217  C4     -0.070  
C      -2.103  -1.255  -0.244  C5     -0.151  
C      -2.838  -0.038  -0.195  C6     0.135   
C      -4.269  0.003   -0.291  C7     -0.199  
C      -4.961  1.172   -0.225  C8     -0.202  
C      -4.303  2.438   -0.067  C9     0.143   
C      -2.869  2.451   -0.058  C10    -0.056  
C      -2.166  3.701   -0.016  C11    0.150   
C      -0.734  3.670   -0.097  C12    -0.214  
C      -0.041  2.499   -0.133  C13    -0.193  
C      -5.019  3.664   0.007   C14    -0.160  
C      -4.298  4.862   0.040   C15    -0.064  
C      -2.900  4.917   0.039   C16    -0.162  
C      -2.745  -2.602  -0.303  C17    0.146   
C      1.503   -0.084  -0.048  C18    0.142   
C      -2.248  6.258   0.094   C19    0.153   
C      -6.509  3.733   0.062   C20    0.148   
C      -2.331  -3.537  -1.271  C21    -0.193  
C      -2.882  -4.817  -1.314  C22    -0.126  
C      -3.861  -5.214  -0.393  C23    -0.021  
C      -4.270  -4.288  0.577   C24    -0.131  
C      -3.723  -3.007  0.624   C25    -0.176  
C      2.222   -0.877  -0.961  C26    -0.191  
C      3.608   -1.001  -0.873  C27    -0.128  
C      4.329   -0.342  0.132   C28    -0.019  
C      3.617   0.442   1.049   C29    -0.134  
C      2.231   0.569   0.965   C30    -0.172  
C      -2.620  7.258   -0.824  C31    -0.193  
C      -2.038  8.524   -0.785  C32    -0.127  
C      -1.069  8.844   0.176   C33    -0.022  
C      -0.709  7.856   1.104   C34    -0.128  
C      -1.286  6.587   1.066   C35    -0.185  
C      -7.213  4.589   -0.805  C36    -0.193  
C      -8.602  4.694   -0.741  C37    -0.128  
C      -9.340  3.955   0.193   C38    -0.020  
C      -8.642  3.107   1.064   C39    -0.132  
C      -7.254  2.998   1.003   C40    -0.176  
C      -0.423  10.228  0.210   C41    0.645   
C      5.847   -0.477  0.226   C42    0.643   
C      -4.462  -6.618  -0.439  C43    0.644   
C      -10.862 4.072   0.264   C44    0.644   
O      -0.787  11.061  -0.672  O45    -0.710  
O      0.434   10.448  1.117   O46    -0.706  
O      6.431   0.155   1.157   O47    -0.706  
O      -4.038  -7.403  -1.339  O48    -0.710  
O      -5.344  -6.902  0.425   O49    -0.706  
O      6.421   -1.211  -0.632  O50    -0.710  
O      -11.460 3.369   1.131   O51    -0.706  
O      -11.422 4.866   -0.549  O52    -0.710  
H      -0.153  -2.135  -0.218  H53    0.086   
H      -4.808  -0.924  -0.444  H54    0.124   
H      -6.040  1.154   -0.326  H55    0.126   
H      -0.193  4.606   -0.157  H56    0.131   
H      1.039   2.526   -0.219  H57    0.124   
H      -4.849  5.793   0.114   H58    0.082   
H      -1.580  -3.249  -2.002  H59    0.098   
H      -2.560  -5.527  -2.069  H60    0.090   
H      -5.020  -4.590  1.302   H61    0.093   
H      -4.042  -2.316  1.400   H62    0.099   
H      1.686   -1.388  -1.758  H63    0.098   
H      4.150   -1.609  -1.590  H64    0.090   
H      4.164   0.948   1.838   H65    0.094   
H      1.701   1.166   1.702   H66    0.097   
H      -3.361  7.029   -1.586  H67    0.098   
H      -2.324  9.282   -1.508  H68    0.090   
H      0.030   8.098   1.861   H69    0.093   
H      -0.999  5.844   1.806   H70    0.100   
H      -6.663  5.164   -1.546  H71    0.099   
H      -9.133  5.352   -1.422  H72    0.090   
H      -9.204  2.537   1.798   H73    0.094   
H      -6.736  2.348   1.703   H74    0.098   
