74

C      -3.819  2.861   -3.631  C1     -0.021  
C      -2.384  2.852   -3.643  C2     0.108   
C      -1.690  1.612   -3.589  C3     -0.140  
C      -2.431  0.426   -3.578  C4     -0.095  
C      -3.830  0.394   -3.579  C5     -0.143  
C      -4.543  1.623   -3.611  C6     0.111   
C      -5.975  1.682   -3.688  C7     -0.195  
C      -6.647  2.865   -3.700  C8     -0.201  
C      -5.965  4.127   -3.647  C9     0.120   
C      -4.531  4.116   -3.659  C10    -0.039  
C      -3.807  5.352   -3.720  C11    0.129   
C      -2.377  5.290   -3.820  C12    -0.211  
C      -1.704  4.108   -3.779  C13    -0.191  
C      -6.660  5.367   -3.654  C14    -0.149  
C      -5.918  6.552   -3.720  C15    -0.088  
C      -4.520  6.582   -3.746  C16    -0.152  
C      -4.494  -0.943  -3.529  C17    0.248   
C      -0.202  1.511   -3.524  C18    0.241   
C      -3.845  7.912   -3.801  C19    0.247   
C      -8.147  5.467   -3.582  C20    0.246   
C      -4.764  -1.641  -4.721  C21    -0.240  
C      -5.340  -2.911  -4.695  C22    -0.104  
C      -5.664  -3.533  -3.482  C23    -0.050  
C      -5.389  -2.844  -2.293  C24    -0.101  
C      -4.814  -1.574  -2.312  C25    -0.245  
C      0.556   1.420   -4.706  C26    -0.233  
C      1.942   1.280   -4.663  C27    -0.108  
C      2.625   1.221   -3.441  C28    -0.048  
C      1.874   1.303   -2.261  C29    -0.102  
C      0.487   1.443   -2.298  C30    -0.244  
C      -3.587  8.518   -5.044  C31    -0.240  
C      -2.972  9.766   -5.123  C32    -0.104  
C      -2.600  10.462  -3.965  C33    -0.049  
C      -2.872  9.870   -2.724  C34    -0.102  
C      -3.483  8.619   -2.640  C35    -0.244  
C      -8.913  5.526   -4.760  C36    -0.236  
C      -10.300 5.657   -4.711  C37    -0.106  
C      -10.975 5.740   -3.486  C38    -0.049  
C      -10.216 5.690   -2.310  C39    -0.101  
C      -8.828  5.558   -2.354  C40    -0.245  
C      -1.915  11.825  -4.054  C41    0.655   
C      4.144   1.069   -3.396  C42    0.655   
C      -6.292  -4.926  -3.455  C43    0.656   
C      -12.495 5.886   -3.433  C44    0.655   
O      -1.686  12.287  -5.211  O45    -0.710  
O      -1.620  12.400  -2.964  O46    -0.711  
O      4.692   1.031   -2.254  O47    -0.711  
O      -6.504  -5.490  -4.569  O48    -0.711  
O      -6.558  -5.422  -2.320  O49    -0.711  
O      4.754   0.991   -4.504  O50    -0.711  
O      -13.034 5.950   -2.289  O51    -0.711  
O      -13.114 5.934   -4.538  O52    -0.711  
H      -1.895  -0.516  -3.516  H53    0.076   
H      -6.532  0.756   -3.765  H54    0.122   
H      -7.727  2.858   -3.783  H55    0.125   
H      -1.822  6.210   -3.958  H56    0.130   
H      -0.626  4.109   -3.882  H57    0.122   
H      -6.453  7.496   -3.708  H58    0.074   
H      -4.532  -1.175  -5.675  H59    0.102   
H      -5.550  -3.436  -5.622  H60    0.089   
H      -5.626  -3.322  -1.347  H61    0.090   
H      -4.592  -1.072  -1.375  H62    0.104   
H      0.050   1.476   -5.667  H63    0.101   
H      2.515   1.219   -5.584  H64    0.090   
H      2.392   1.247   -1.309  H65    0.090   
H      -0.073  1.483   -1.368  H66    0.104   
H      -3.856  7.991   -5.957  H67    0.103   
H      -2.766  10.216  -6.090  H68    0.089   
H      -2.599  10.407  -1.821  H69    0.090   
H      -3.696  8.190   -1.665  H70    0.104   
H      -8.413  5.452   -5.723  H71    0.102   
H      -10.880 5.692   -5.629  H72    0.090   
H      -10.728 5.763   -1.355  H73    0.090   
H      -8.262  5.541   -1.427  H74    0.104   
