31
Structure2
C         -0.47890        0.40960       -1.37080
C         -1.04530       -0.85890       -1.32820
C         -2.17770       -1.08880       -0.55600
C         -2.74380       -0.05020        0.17370
C         -2.17750        1.21830        0.13110
C         -1.04510        1.44820       -0.64110
C          4.24480       -0.04490        0.15390
C          3.67610       -1.08440       -0.57260
C          2.53900       -0.85620       -1.33840
C          1.97050        0.41150       -1.37770
C          2.53920        1.45090       -0.65120
C          3.67630        1.22270        0.11460
C         -3.96600       -0.29830        1.00710
C          5.47210       -0.29120        0.98050
O          5.83950       -1.59240        0.86240
O          6.08170        0.51950        1.66880
O         -4.57300        0.51140        1.69900
O         -4.33210       -1.60010        0.89110
C          0.74330        0.65770       -2.20420
H         -0.60450       -1.66750       -1.89630
H         -2.61860       -2.07640       -0.52290
H         -2.61820        2.02690        0.69920
H         -0.60420        2.43580       -0.67420
H          4.11870       -2.07130       -0.54190
H          2.09630       -1.66550       -1.90400
H          2.09660        2.43780       -0.68190
H          4.11910        2.03200        0.68020
H          6.61140       -1.73420        1.38620
H         -5.10090       -1.74310        1.41930
H          0.74140       -0.01560       -3.06140
H          0.74150        1.69030       -2.55330
