14

Nd   -2.616549    9.012221    6.708240
Nd    2.745349    9.143758    6.568305
 O    1.430082    9.262598    8.682860
 O   -1.301282    8.893381    4.593685
 O   -0.720543    9.471120    8.175696
 O    0.849343    8.684860    5.100848
 O   -1.119368    6.912088    6.849370
 O    1.248168   11.243892    6.427175
 H   -1.489066    6.155916    6.435274
 H    1.617866   12.000063    6.841271
 H   -1.012907    6.594030    7.726763
 H    1.141707   11.561949    5.549781
 C    0.232357    9.466247    8.982910
 C   -0.103557    8.689732    4.293635
