20
Structure1
C          0.00000        0.00000        0.00000
C         -0.69490        1.20360        0.00000
C         -2.08470        1.20360       -0.00000
C         -2.77970       -0.00000       -0.00000
C         -2.08470       -1.20360       -0.00000
C         -0.69490       -1.20360       -0.00000
C         -4.27970       -0.00000       -0.00000
C          1.50000        0.00000        0.00000
O          1.96000        0.65050        1.12680
O          1.96000        0.65050       -1.12680
O         -4.73970        0.65050       -1.12680
O         -4.73970        0.65050        1.12680
H         -0.15390        2.14070       -0.00000
H         -2.62580        2.14070       -0.00000
H         -2.62580       -2.14070       -0.00000
H         -0.15390       -2.14070        0.00000
H          1.67360        0.24560        1.99510
H          2.52810        1.45400       -0.94860
H         -4.45330        0.24560       -1.99510
H         -4.45330        0.24560        1.99510
