62
sym_8_mc_9
 O   21.799200   17.399800   17.621800
 O   23.438400   18.826200   18.944600
 C   23.096800   17.900400   17.923800
 O   18.200600   22.365400   17.388000
 O   16.561600   21.069400   18.839000
 C   16.903000   21.895400   17.735800
 O   21.799200   22.365400   17.388000
 O   23.438400   21.069400   18.839000
 C   23.096800   21.895400   17.735800
 O   18.200600   17.399800   17.621800
 O   16.561600   18.826200   18.944600
 C   16.903000   17.900400   17.923800
Zr   20.000000   18.255800   18.417000
 O   20.000000   18.292800   16.313000
 O   19.827400   16.134000   18.562400
Zr   20.000000   21.587800   18.260200
 O   20.192200   21.483000   16.137400
 O   19.776599   23.697600   18.333600
 O   21.215200   19.909000   18.066400
 O   18.784800   19.909000   18.066400
 O   18.200600   17.634600   22.612000
 O   16.561600   18.930600   21.161000
 C   16.903000   18.104600   22.264200
 O   21.799200   22.600200   22.378200
 O   23.438400   21.173800   21.055400
 C   23.096800   22.099600   22.076200
 O   18.200600   22.600200   22.378200
 O   16.561600   21.173800   21.055400
 C   16.903000   22.099600   22.076200
 O   21.799200   17.634600   22.612000
 O   23.438400   18.930600   21.161000
 C   23.096800   18.104600   22.264200
Zr   20.000000   18.412200   21.739800
 O   20.177800   18.545200   23.863400
 O   20.041400   16.291600   21.707800
Zr   20.000000   21.744200   21.583000
 O   19.944400   21.814600   23.700000
 O   20.071600   23.855400   21.301000
Zr   21.995200   20.000000   20.000000
Zr   18.004600   20.000000   20.000000
 O   18.784800   20.091000   21.933600
 O   21.215200   20.091000   21.933600
 O   18.774199   18.061800   20.091200
 O   21.225800   21.938200   19.908800
 O   21.225800   18.061800   20.091200
 O   18.774199   21.938200   19.908800
 H   18.198600   19.864800   17.125200
 H   21.833000   22.864400   19.865201
 H   18.198600   20.135200   22.874800
 H   21.833000   17.135600   20.134800
 H   20.656800   24.122400   18.483000
 H   19.248600   24.138800   20.829200
 H   20.626200   21.183800   24.042000
 H   19.439400   19.087600   24.230000
 H   19.267800   15.968601   21.181200
 H   20.579400   15.774400   19.090400
 H   20.743800   18.862600   15.993201
 H   19.465801   20.925200   15.769399
 H   20.015000   17.638800   24.233200
 H   19.976400   15.763600   17.654001
 H   20.008400   22.388400   15.774800
 H   19.998400   24.272200   22.197800