74
generated by MOF_BUILD
C      34.210  83.870 104.590
C      34.930  83.890 103.350
C      36.350  83.910 103.370
C      37.020  83.860 104.600
C      36.350  83.830 105.830
C      34.930  83.830 105.830
C      34.160  83.720 107.040
C      32.800  83.740 107.040
C      32.050  83.860 105.830
C      32.770  83.880 104.590
C      32.050  83.880 103.340
C      32.820  83.810 102.130
C      34.180  83.820 102.130
C      30.630  83.880 105.810
C      29.960  83.880 104.580
C      30.630  83.880 103.350
H      38.100  83.900 104.600
H      34.690  83.600 107.980
H      32.270  83.630 107.980
H      32.290  83.720 101.190
H      34.710  83.740 101.190
H      28.880  83.920 104.580
C      38.590  85.220 101.750
C      39.640  85.240 100.820
C      40.020  84.070 100.140
H      38.330  86.140 102.270
C      38.270  82.870 101.340
C      39.320  82.890 100.420
H      37.730  81.940 101.520
H      40.180  86.160 100.620
H      39.600  81.990  99.890
C      37.890  84.040 102.030
C      38.570  85.060 107.490
C      39.590  85.090 108.440
C      39.950  83.940 109.160
H      38.310  85.970 106.960
C      38.220  82.720 107.950
C      39.240  82.750 108.890
H      37.710  81.780 107.740
H      40.130  86.010 108.650
H      39.520  81.850 109.440
C      37.860  83.870 107.230
C      29.160  83.160 108.370
C      28.130  83.200 109.300
C      26.990  83.990 109.090
H      30.040  82.550 108.560
C      27.950  84.710 106.970
C      26.920  84.740 107.910
H      27.870  85.290 106.060
H      28.190  82.610 110.210
H      26.040  85.350 107.730
C      29.100  83.930 107.190
C      28.540  82.780 101.480
C      27.510  82.820 100.550
C      27.010  84.040 100.080
H      28.900  81.820 101.840
C      28.620  85.190 101.510
C      27.580  85.220 100.570
H      29.060  86.110 101.860
H      27.070  81.900 100.170
H      27.210  86.180 100.210
C      29.120  83.960 101.990
C      41.550  84.200  98.810
O      41.670  83.220  97.790
O      42.450  85.270  99.060
C      41.460  83.980 110.560
O      41.620  83.110 111.670
O      42.340  85.030 110.170
C      25.460  84.030 110.460
O      25.330  83.120 111.540
O      24.570  85.090 110.120
C      25.490  84.120  98.710
O      25.350  83.170  97.670
O      24.610  85.190  99.020
